ADDER

v1 CI GND pwl 0 0ps
v2 A4 GND pwl 0 0ps
v3 B4 GND pwl 0 0ps 1000ps 0 1050ps 1.8
v4 A3 GND pwl 0 0ps
v5 B3 GND pwl 0 0ps 1000ps 0 1050ps 1.8
v6 A2 GND pwl 0 0ps
v7 B2 GND pwl 0 0ps 1000ps 0 1050ps 1.8
v8 A1 GND pwl 0 0ps 1000ps 0 1050ps 1.8
v9 B1 GND pwl 0 0ps 1000ps 0 1050ps 1.8
v10 VDD GND pwl 0 1.8

Xadder_0 A1 B1 A2 B2 A3 B3 A4 B4 A5 B5 A6 B6 A7 B7 A8 B8 A9 B9 A10 B10 A11 B11
+ A12 B12 A13 B13 A14 B14 A15 B15 A16 B16 S1 S2 S3 S4 S5 S6 S7 S8 S9 S10 S11 S12 S13
+ S14 S15 S16 CI CO

Xadder_4_0 A1 B1 A2 B2 A3 B3 A4 B4 CI S1 S2 S3 S4 CO VDD GND adder_4

.measure tran tpdr TRIG v(B1) VAL=0.1 RISE=1 TARG v(co) VAL=1.7 RISE=1
*.measure tran tpdf TRIG v(B1) VAL=1.7 FALL=1 TARG v(co) VAL=0.1 FALL=1 CROSS=LAST


.lib /opt/open_pdks/share/pdk/sky130A/libs.tech/ngspice/sky130.lib.spice tt
.tran 10p 204800ps
.options method=gear
.tran 40ps 4000ps
.save all

.subckt sky130_fd_sc_hd__a21o_1 A1 A2 B1 VGND VNB VPB VPWR X a_384_47# a_81_21# a_299_297#
X0 a_81_21# B1 VGND VNB sky130_fd_pr__nfet_01v8 ad=0.0894 pd=0.925 as=0.229 ps=1.57 w=0.65 l=0.15
**devattr s=10270,288 d=3575,185
X1 a_299_297# B1 a_81_21# VPB sky130_fd_pr__pfet_01v8_hvt ad=0.18 pd=1.69 as=0.26 ps=2.52 w=1 l=0.15
**devattr s=10400,504 d=5500,255
X2 VPWR a_81_21# X VPB sky130_fd_pr__pfet_01v8_hvt ad=0.18 pd=1.69 as=0.26 ps=2.52 w=1 l=0.15
**devattr s=10400,504 d=10400,504
X3 VPWR A1 a_299_297# VPB sky130_fd_pr__pfet_01v8_hvt ad=0.18 pd=1.69 as=0.18 ps=1.69 w=1 l=0.15
**devattr s=5500,255 d=5600,256
X4 VGND a_81_21# X VNB sky130_fd_pr__nfet_01v8 ad=0.229 pd=1.57 as=0.169 ps=1.82 w=0.65 l=0.15
**devattr s=6760,364 d=10270,288
X5 VGND A2 a_384_47# VNB sky130_fd_pr__nfet_01v8 ad=0.229 pd=1.57 as=0.091 ps=0.93 w=0.65 l=0.15
**devattr s=3640,186 d=6890,366
X6 a_299_297# A2 VPWR VPB sky130_fd_pr__pfet_01v8_hvt ad=0.18 pd=1.69 as=0.18 ps=1.69 w=1 l=0.15
**devattr s=5600,256 d=10600,506
X7 a_384_47# A1 a_81_21# VNB sky130_fd_pr__nfet_01v8 ad=0.091 pd=0.93 as=0.0894 ps=0.925 w=0.65 l=0.15
**devattr s=3575,185 d=3640,186
C0 VGND A1 0.0786f
C1 a_81_21# a_384_47# 0.00138f
C2 VPB B1 0.0387f
C3 a_299_297# VPWR 0.202f
C4 A2 VPB 0.0373f
C5 VGND a_384_47# 0.00366f
C6 A1 VPWR 0.0209f
C7 a_299_297# A1 0.0585f
C8 a_81_21# B1 0.148f
C9 a_81_21# A2 7.47e-19
C10 a_384_47# VPWR 4.08e-19
C11 VGND B1 0.0181f
C12 VPB X 0.0108f
C13 a_299_297# a_384_47# 1.48e-19
C14 A2 VGND 0.0495f
C15 A1 a_384_47# 0.00884f
C16 a_81_21# X 0.112f
C17 B1 VPWR 0.0196f
C18 a_299_297# B1 0.00863f
C19 A2 VPWR 0.0201f
C20 a_299_297# A2 0.0468f
C21 VGND X 0.0512f
C22 A1 B1 0.0817f
C23 A2 A1 0.0921f
C24 a_81_21# VPB 0.0593f
C25 X VPWR 0.0847f
C26 VGND VPB 0.00713f
C27 a_81_21# VGND 0.173f
C28 VPB VPWR 0.068f
C29 a_299_297# VPB 0.0111f
C30 A1 VPB 0.0264f
C31 a_81_21# VPWR 0.146f
C32 a_81_21# a_299_297# 0.0821f
C33 a_81_21# A1 0.0568f
C34 VGND VPWR 0.0579f
C35 X B1 3.04e-20
C36 a_299_297# VGND 0.00772f
C37 VGND VNB 0.364f
C38 VPWR VNB 0.286f
C39 X VNB 0.0945f
C40 A2 VNB 0.144f
C41 A1 VNB 0.0996f
C42 B1 VNB 0.109f
C43 VPB VNB 0.605f
C44 a_299_297# VNB 0.0348f
C45 a_81_21# VNB 0.147f
.ends

.subckt sky130_fd_sc_hd__and4_1 A B C D VGND VNB VPB VPWR X a_109_47# a_197_47# a_303_47#
+ a_27_47#
X0 a_27_47# C VPWR VPB sky130_fd_pr__pfet_01v8_hvt ad=0.0662 pd=0.735 as=0.139 ps=0.987 w=0.42 l=0.15
**devattr s=3108,158 d=2352,140
X1 a_197_47# B a_109_47# VNB sky130_fd_pr__nfet_01v8 ad=0.0798 pd=0.8 as=0.0609 ps=0.71 w=0.42 l=0.15
**devattr s=2436,142 d=3192,160
X2 X a_27_47# VPWR VPB sky130_fd_pr__pfet_01v8_hvt ad=0.26 pd=2.52 as=0.332 ps=2.35 w=1 l=0.15
**devattr s=12498,336 d=10400,504
X3 a_303_47# C a_197_47# VNB sky130_fd_pr__nfet_01v8 ad=0.0693 pd=0.75 as=0.0798 ps=0.8 w=0.42 l=0.15
**devattr s=3192,160 d=2772,150
X4 a_27_47# A VPWR VPB sky130_fd_pr__pfet_01v8_hvt ad=0.0662 pd=0.735 as=0.139 ps=0.987 w=0.42 l=0.15
**devattr s=4368,272 d=2940,154
X5 VPWR D a_27_47# VPB sky130_fd_pr__pfet_01v8_hvt ad=0.139 pd=0.987 as=0.0662 ps=0.735 w=0.42 l=0.15
**devattr s=2352,140 d=12498,336
X6 VGND D a_303_47# VNB sky130_fd_pr__nfet_01v8 ad=0.154 pd=1.04 as=0.0693 ps=0.75 w=0.42 l=0.15
**devattr s=2772,150 d=7851,266
X7 VPWR B a_27_47# VPB sky130_fd_pr__pfet_01v8_hvt ad=0.139 pd=0.987 as=0.0662 ps=0.735 w=0.42 l=0.15
**devattr s=2940,154 d=3108,158
X8 X a_27_47# VGND VNB sky130_fd_pr__nfet_01v8 ad=0.169 pd=1.82 as=0.238 ps=1.62 w=0.65 l=0.15
**devattr s=7851,266 d=6760,364
X9 a_109_47# A a_27_47# VNB sky130_fd_pr__nfet_01v8 ad=0.0609 pd=0.71 as=0.109 ps=1.36 w=0.42 l=0.15
**devattr s=4368,272 d=2436,142
C0 VGND a_197_47# 0.00387f
C1 VPB VPWR 0.077f
C2 VGND VPWR 0.0662f
C3 C B 0.161f
C4 A B 0.0839f
C5 D X 0.00746f
C6 a_27_47# a_109_47# 0.00578f
C7 a_303_47# a_27_47# 0.00119f
C8 VPB B 0.0643f
C9 VGND B 0.0453f
C10 X VPWR 0.0945f
C11 D VPWR 0.0207f
C12 C a_109_47# 1.72e-20
C13 a_303_47# C 0.00527f
C14 a_197_47# VPWR 5.24e-19
C15 VGND a_109_47# 0.00223f
C16 VGND a_303_47# 0.00381f
C17 a_197_47# B 0.00623f
C18 B VPWR 0.0231f
C19 D a_303_47# 0.00119f
C20 VPWR a_109_47# 4.66e-19
C21 C a_27_47# 0.0516f
C22 A a_27_47# 0.153f
C23 a_303_47# VPWR 4.83e-19
C24 B a_109_47# 0.00153f
C25 VPB a_27_47# 0.082f
C26 VGND a_27_47# 0.132f
C27 VPB C 0.0609f
C28 A VPB 0.0907f
C29 VGND C 0.0408f
C30 VGND A 0.0151f
C31 X a_27_47# 0.0754f
C32 D a_27_47# 0.107f
C33 VGND VPB 0.00852f
C34 a_197_47# a_27_47# 0.00167f
C35 a_27_47# VPWR 0.326f
C36 D C 0.18f
C37 C a_197_47# 0.00123f
C38 X VPB 0.0111f
C39 VGND X 0.0903f
C40 C VPWR 0.021f
C41 A VPWR 0.044f
C42 a_27_47# B 0.13f
C43 D VPB 0.0782f
C44 VGND D 0.0898f
C45 VGND VNB 0.393f
C46 X VNB 0.0933f
C47 VPWR VNB 0.335f
C48 D VNB 0.13f
C49 C VNB 0.11f
C50 B VNB 0.112f
C51 A VNB 0.221f
C52 VPB VNB 0.693f
C53 a_27_47# VNB 0.175f
.ends

.subckt adder_2 CI P1 G1 P2 G2 P3 G3 P4 G4 CO sky130_fd_sc_hd__a21o_1_0/a_81_21# sky130_fd_sc_hd__and4_1_0/a_27_47#
+ sky130_fd_sc_hd__a21o_1_0/a_384_47# sky130_fd_sc_hd__a21o_1_1/X sky130_fd_sc_hd__a21o_1_0/a_299_297#
+ sky130_fd_sc_hd__a21o_1_1/a_81_21# VPB sky130_fd_sc_hd__a21o_1_1/a_299_297# sky130_fd_sc_hd__a21o_1_1/a_384_47#
+ sky130_fd_sc_hd__a21o_1_2/a_299_297# sky130_fd_sc_hd__and4_1_0/a_109_47# sky130_fd_sc_hd__a21o_1_2/X
+ sky130_fd_sc_hd__a21o_1_0/X sky130_fd_sc_hd__and4_1_0/X sky130_fd_sc_hd__a21o_1_3/a_299_297#
+ sky130_fd_sc_hd__a21o_1_2/a_81_21# VNB sky130_fd_sc_hd__and4_1_0/a_197_47# sky130_fd_sc_hd__a21o_1_2/a_384_47#
+ sky130_fd_sc_hd__and4_1_0/a_303_47# sky130_fd_sc_hd__a21o_1_3/a_81_21# sky130_fd_sc_hd__a21o_1_3/a_384_47#
Xsky130_fd_sc_hd__a21o_1_0 G1 P2 G2 VNB VNB VPB VPB sky130_fd_sc_hd__a21o_1_0/X sky130_fd_sc_hd__a21o_1_0/a_384_47#
+ sky130_fd_sc_hd__a21o_1_0/a_81_21# sky130_fd_sc_hd__a21o_1_0/a_299_297# sky130_fd_sc_hd__a21o_1
Xsky130_fd_sc_hd__a21o_1_1 sky130_fd_sc_hd__a21o_1_0/X P3 G3 VNB VNB VPB VPB sky130_fd_sc_hd__a21o_1_1/X
+ sky130_fd_sc_hd__a21o_1_1/a_384_47# sky130_fd_sc_hd__a21o_1_1/a_81_21# sky130_fd_sc_hd__a21o_1_1/a_299_297#
+ sky130_fd_sc_hd__a21o_1
Xsky130_fd_sc_hd__a21o_1_2 sky130_fd_sc_hd__a21o_1_1/X P4 G4 VNB VNB VPB VPB sky130_fd_sc_hd__a21o_1_2/X
+ sky130_fd_sc_hd__a21o_1_2/a_384_47# sky130_fd_sc_hd__a21o_1_2/a_81_21# sky130_fd_sc_hd__a21o_1_2/a_299_297#
+ sky130_fd_sc_hd__a21o_1
Xsky130_fd_sc_hd__a21o_1_3 sky130_fd_sc_hd__and4_1_0/X CI sky130_fd_sc_hd__a21o_1_2/X
+ VNB VNB VPB VPB CO sky130_fd_sc_hd__a21o_1_3/a_384_47# sky130_fd_sc_hd__a21o_1_3/a_81_21#
+ sky130_fd_sc_hd__a21o_1_3/a_299_297# sky130_fd_sc_hd__a21o_1
Xsky130_fd_sc_hd__and4_1_0 P4 P2 P3 P1 VNB VNB VPB VPB sky130_fd_sc_hd__and4_1_0/X
+ sky130_fd_sc_hd__and4_1_0/a_109_47# sky130_fd_sc_hd__and4_1_0/a_197_47# sky130_fd_sc_hd__and4_1_0/a_303_47#
+ sky130_fd_sc_hd__and4_1_0/a_27_47# sky130_fd_sc_hd__and4_1
C0 sky130_fd_sc_hd__a21o_1_2/a_81_21# sky130_fd_sc_hd__a21o_1_1/X 0.0421f
C1 VNB G1 -0.00488f
C2 sky130_fd_sc_hd__a21o_1_2/X sky130_fd_sc_hd__a21o_1_1/X 0.0261f
C3 P2 sky130_fd_sc_hd__a21o_1_0/a_299_297# 0.0456f
C4 sky130_fd_sc_hd__and4_1_0/X sky130_fd_sc_hd__a21o_1_1/a_384_47# 1.46e-21
C5 G3 sky130_fd_sc_hd__a21o_1_1/X 0.0595f
C6 sky130_fd_sc_hd__and4_1_0/a_197_47# sky130_fd_sc_hd__and4_1_0/X 1.78e-19
C7 P3 G4 0.0694f
C8 sky130_fd_sc_hd__a21o_1_1/a_299_297# P2 0.0566f
C9 sky130_fd_sc_hd__a21o_1_3/a_81_21# CO 0.00936f
C10 sky130_fd_sc_hd__a21o_1_3/a_299_297# P1 2.61e-19
C11 sky130_fd_sc_hd__and4_1_0/X P4 4.68e-20
C12 VNB CO -0.00689f
C13 VPB sky130_fd_sc_hd__a21o_1_3/a_81_21# -0.0123f
C14 sky130_fd_sc_hd__a21o_1_1/a_384_47# sky130_fd_sc_hd__a21o_1_0/X 6.97e-19
C15 VNB sky130_fd_sc_hd__a21o_1_2/a_384_47# -2.27e-19
C16 sky130_fd_sc_hd__a21o_1_2/X G1 4.98e-20
C17 VPB VNB -0.275f
C18 sky130_fd_sc_hd__and4_1_0/a_197_47# sky130_fd_sc_hd__a21o_1_0/X 5.93e-21
C19 sky130_fd_sc_hd__and4_1_0/X sky130_fd_sc_hd__a21o_1_1/X 5.37e-20
C20 sky130_fd_sc_hd__a21o_1_0/a_81_21# G2 0.0401f
C21 P4 sky130_fd_sc_hd__a21o_1_0/X 5.9e-20
C22 VPB sky130_fd_sc_hd__a21o_1_2/a_81_21# -0.0132f
C23 P3 sky130_fd_sc_hd__a21o_1_3/a_81_21# 2.3e-19
C24 sky130_fd_sc_hd__a21o_1_2/X CO 0.0504f
C25 P4 sky130_fd_sc_hd__and4_1_0/a_27_47# 0.00576f
C26 P3 VNB 0.543f
C27 sky130_fd_sc_hd__a21o_1_2/X VPB 1.21f
C28 VPB G3 -6.71e-19
C29 P2 sky130_fd_sc_hd__a21o_1_2/a_299_297# 0.055f
C30 sky130_fd_sc_hd__a21o_1_0/X sky130_fd_sc_hd__a21o_1_1/X 0.121f
C31 sky130_fd_sc_hd__and4_1_0/a_197_47# P2 2.63e-19
C32 G4 VNB 8.25e-19
C33 P4 sky130_fd_sc_hd__a21o_1_1/a_81_21# 1.01e-19
C34 P4 P2 0.197f
C35 sky130_fd_sc_hd__and4_1_0/a_27_47# sky130_fd_sc_hd__a21o_1_1/X 1.67e-19
C36 P3 sky130_fd_sc_hd__a21o_1_2/a_81_21# 0.0706f
C37 P3 sky130_fd_sc_hd__a21o_1_2/X 0.0674f
C38 P3 G3 0.0176f
C39 sky130_fd_sc_hd__a21o_1_0/X G1 0.0691f
C40 sky130_fd_sc_hd__a21o_1_1/a_81_21# sky130_fd_sc_hd__a21o_1_1/X 0.0447f
C41 sky130_fd_sc_hd__and4_1_0/X CO 0.13f
C42 G4 sky130_fd_sc_hd__a21o_1_2/a_81_21# 0.0188f
C43 P2 sky130_fd_sc_hd__a21o_1_1/X 0.627f
C44 sky130_fd_sc_hd__and4_1_0/X sky130_fd_sc_hd__a21o_1_2/a_384_47# 1.23e-20
C45 VPB sky130_fd_sc_hd__and4_1_0/X 0.0202f
C46 sky130_fd_sc_hd__a21o_1_2/X G4 0.00776f
C47 VNB sky130_fd_sc_hd__a21o_1_3/a_81_21# -0.0199f
C48 sky130_fd_sc_hd__a21o_1_2/a_384_47# sky130_fd_sc_hd__a21o_1_0/X 1.12e-20
C49 VPB sky130_fd_sc_hd__a21o_1_0/X 0.0377f
C50 P2 G1 0.0935f
C51 sky130_fd_sc_hd__and4_1_0/a_303_47# VPB -4.83e-19
C52 P3 sky130_fd_sc_hd__and4_1_0/X 0.00586f
C53 sky130_fd_sc_hd__and4_1_0/a_27_47# CO 0.00246f
C54 VPB sky130_fd_sc_hd__and4_1_0/a_27_47# -0.0199f
C55 VNB sky130_fd_sc_hd__a21o_1_2/a_81_21# -0.0181f
C56 sky130_fd_sc_hd__a21o_1_2/X sky130_fd_sc_hd__a21o_1_3/a_81_21# 0.07f
C57 G4 sky130_fd_sc_hd__and4_1_0/X 1.98e-20
C58 P4 P1 4.35e-19
C59 sky130_fd_sc_hd__a21o_1_2/X VNB 0.0224f
C60 P2 CO 4.84e-19
C61 G3 VNB 6.81e-19
C62 sky130_fd_sc_hd__a21o_1_2/a_384_47# P2 2.47e-20
C63 P3 sky130_fd_sc_hd__a21o_1_0/X 0.0694f
C64 VPB sky130_fd_sc_hd__a21o_1_1/a_81_21# -0.00647f
C65 VPB P2 0.383f
C66 P3 sky130_fd_sc_hd__and4_1_0/a_303_47# 4.7e-19
C67 VPB sky130_fd_sc_hd__a21o_1_3/a_384_47# -1.62e-19
C68 VPB CI 0.00996f
C69 sky130_fd_sc_hd__a21o_1_0/a_384_47# sky130_fd_sc_hd__a21o_1_1/X 1.32e-20
C70 G4 sky130_fd_sc_hd__a21o_1_0/X 3.47e-20
C71 P1 sky130_fd_sc_hd__a21o_1_1/X 4.83e-20
C72 P3 sky130_fd_sc_hd__and4_1_0/a_27_47# 0.0397f
C73 sky130_fd_sc_hd__a21o_1_2/X sky130_fd_sc_hd__a21o_1_2/a_81_21# 0.02f
C74 sky130_fd_sc_hd__a21o_1_1/X G2 1.59e-19
C75 sky130_fd_sc_hd__a21o_1_0/a_81_21# sky130_fd_sc_hd__a21o_1_1/X 0.0018f
C76 sky130_fd_sc_hd__a21o_1_2/X G3 4.15e-19
C77 sky130_fd_sc_hd__and4_1_0/X sky130_fd_sc_hd__a21o_1_3/a_81_21# 0.0697f
C78 P3 P2 0.155f
C79 VNB sky130_fd_sc_hd__and4_1_0/X 0.251f
C80 sky130_fd_sc_hd__a21o_1_0/a_384_47# G1 4.61e-19
C81 G4 P2 0.00574f
C82 G1 G2 0.0921f
C83 sky130_fd_sc_hd__a21o_1_0/a_81_21# G1 0.00416f
C84 sky130_fd_sc_hd__a21o_1_1/a_299_297# P4 1.23e-19
C85 sky130_fd_sc_hd__and4_1_0/X sky130_fd_sc_hd__a21o_1_2/a_81_21# 4.69e-20
C86 VNB sky130_fd_sc_hd__a21o_1_0/X 0.461f
C87 sky130_fd_sc_hd__a21o_1_1/X sky130_fd_sc_hd__a21o_1_0/a_299_297# 0.0315f
C88 sky130_fd_sc_hd__and4_1_0/a_303_47# VNB 3.12e-20
C89 sky130_fd_sc_hd__and4_1_0/a_27_47# sky130_fd_sc_hd__a21o_1_3/a_81_21# 0.0108f
C90 sky130_fd_sc_hd__a21o_1_2/X sky130_fd_sc_hd__and4_1_0/X 0.132f
C91 sky130_fd_sc_hd__a21o_1_3/a_299_297# VPB -5.68e-32
C92 P1 CO 0.00943f
C93 VPB sky130_fd_sc_hd__a21o_1_0/a_384_47# -3.87e-19
C94 VNB sky130_fd_sc_hd__and4_1_0/a_27_47# 0.00805f
C95 VPB P1 0.00652f
C96 sky130_fd_sc_hd__a21o_1_1/a_299_297# sky130_fd_sc_hd__a21o_1_1/X 0.0338f
C97 sky130_fd_sc_hd__a21o_1_0/X sky130_fd_sc_hd__a21o_1_2/a_81_21# 1.2e-19
C98 VPB G2 0.0175f
C99 sky130_fd_sc_hd__a21o_1_3/a_81_21# P2 6.76e-19
C100 VPB sky130_fd_sc_hd__a21o_1_0/a_81_21# -0.00151f
C101 sky130_fd_sc_hd__and4_1_0/a_109_47# VPB -4.66e-19
C102 VNB sky130_fd_sc_hd__a21o_1_1/a_81_21# -0.0191f
C103 sky130_fd_sc_hd__a21o_1_2/X sky130_fd_sc_hd__a21o_1_0/X 0.00439f
C104 sky130_fd_sc_hd__a21o_1_0/a_299_297# G1 0.0137f
C105 VNB P2 0.00318f
C106 G3 sky130_fd_sc_hd__a21o_1_0/X 0.0894f
C107 VNB sky130_fd_sc_hd__a21o_1_3/a_384_47# -5.85e-20
C108 sky130_fd_sc_hd__a21o_1_2/X sky130_fd_sc_hd__and4_1_0/a_303_47# 4.26e-19
C109 VNB CI 0.02f
C110 sky130_fd_sc_hd__a21o_1_2/X sky130_fd_sc_hd__and4_1_0/a_27_47# 0.0588f
C111 P4 sky130_fd_sc_hd__a21o_1_2/a_299_297# 0.0108f
C112 P3 P1 0.0581f
C113 P2 sky130_fd_sc_hd__a21o_1_2/a_81_21# 0.0301f
C114 sky130_fd_sc_hd__a21o_1_1/a_384_47# sky130_fd_sc_hd__a21o_1_1/X 4.81e-19
C115 P3 sky130_fd_sc_hd__and4_1_0/a_109_47# 0.00143f
C116 G4 P1 1.7e-20
C117 sky130_fd_sc_hd__a21o_1_2/X sky130_fd_sc_hd__a21o_1_1/a_81_21# 0.00223f
C118 sky130_fd_sc_hd__a21o_1_2/X P2 0.455f
C119 G3 sky130_fd_sc_hd__a21o_1_1/a_81_21# 0.023f
C120 VPB sky130_fd_sc_hd__a21o_1_0/a_299_297# 0.00347f
C121 G3 P2 0.0287f
C122 sky130_fd_sc_hd__a21o_1_1/X sky130_fd_sc_hd__a21o_1_2/a_299_297# 0.0193f
C123 sky130_fd_sc_hd__a21o_1_2/X CI 0.00156f
C124 sky130_fd_sc_hd__and4_1_0/X sky130_fd_sc_hd__a21o_1_0/X 7.95e-21
C125 sky130_fd_sc_hd__and4_1_0/a_303_47# sky130_fd_sc_hd__and4_1_0/X 3.17e-19
C126 P4 sky130_fd_sc_hd__a21o_1_1/X 0.0428f
C127 sky130_fd_sc_hd__a21o_1_1/a_299_297# VPB -0.00193f
C128 sky130_fd_sc_hd__and4_1_0/X sky130_fd_sc_hd__and4_1_0/a_27_47# 0.00169f
C129 sky130_fd_sc_hd__and4_1_0/a_303_47# sky130_fd_sc_hd__a21o_1_0/X 5.18e-21
C130 sky130_fd_sc_hd__a21o_1_3/a_299_297# VNB -0.00378f
C131 P1 sky130_fd_sc_hd__a21o_1_3/a_81_21# 0.00196f
C132 VNB sky130_fd_sc_hd__a21o_1_0/a_384_47# -2.71e-19
C133 sky130_fd_sc_hd__and4_1_0/X P2 0.00135f
C134 VNB P1 0.0237f
C135 sky130_fd_sc_hd__and4_1_0/X sky130_fd_sc_hd__a21o_1_3/a_384_47# 7.24e-19
C136 sky130_fd_sc_hd__and4_1_0/a_27_47# sky130_fd_sc_hd__a21o_1_0/X 2.06e-20
C137 P3 sky130_fd_sc_hd__a21o_1_1/a_299_297# 0.00415f
C138 sky130_fd_sc_hd__and4_1_0/X CI 0.0308f
C139 VNB G2 0.00126f
C140 VNB sky130_fd_sc_hd__a21o_1_0/a_81_21# -0.0202f
C141 sky130_fd_sc_hd__and4_1_0/a_109_47# VNB -6.28e-20
C142 VPB sky130_fd_sc_hd__a21o_1_1/a_384_47# -4.08e-19
C143 sky130_fd_sc_hd__a21o_1_1/a_81_21# sky130_fd_sc_hd__a21o_1_0/X 0.0631f
C144 VPB sky130_fd_sc_hd__a21o_1_2/a_299_297# 0.0196f
C145 P2 sky130_fd_sc_hd__a21o_1_0/X 0.0752f
C146 sky130_fd_sc_hd__and4_1_0/a_197_47# VPB -5.24e-19
C147 P1 sky130_fd_sc_hd__a21o_1_2/a_81_21# 3.15e-20
C148 sky130_fd_sc_hd__a21o_1_1/X G1 0.00394f
C149 sky130_fd_sc_hd__a21o_1_3/a_299_297# sky130_fd_sc_hd__a21o_1_2/X 0.0173f
C150 sky130_fd_sc_hd__a21o_1_2/X P1 0.0247f
C151 P4 sky130_fd_sc_hd__a21o_1_2/a_384_47# 6.19e-21
C152 G3 P1 3.23e-21
C153 VPB P4 0.0594f
C154 sky130_fd_sc_hd__and4_1_0/a_27_47# P2 0.0709f
C155 sky130_fd_sc_hd__a21o_1_2/X G2 5.09e-20
C156 sky130_fd_sc_hd__a21o_1_2/X sky130_fd_sc_hd__a21o_1_0/a_81_21# 8.44e-20
C157 P3 sky130_fd_sc_hd__a21o_1_1/a_384_47# 7.45e-20
C158 VNB sky130_fd_sc_hd__a21o_1_0/a_299_297# -0.00449f
C159 P3 sky130_fd_sc_hd__a21o_1_2/a_299_297# 0.00159f
C160 sky130_fd_sc_hd__a21o_1_2/a_384_47# sky130_fd_sc_hd__a21o_1_1/X 7.94e-20
C161 P3 sky130_fd_sc_hd__and4_1_0/a_197_47# 0.0016f
C162 sky130_fd_sc_hd__a21o_1_1/a_81_21# P2 0.0526f
C163 VPB sky130_fd_sc_hd__a21o_1_1/X 0.0255f
C164 P2 CI 2.97e-20
C165 sky130_fd_sc_hd__a21o_1_1/a_299_297# VNB -0.00449f
C166 sky130_fd_sc_hd__a21o_1_3/a_299_297# sky130_fd_sc_hd__and4_1_0/X 0.00642f
C167 P3 P4 0.2f
C168 sky130_fd_sc_hd__and4_1_0/X P1 0.00732f
C169 G4 P4 0.02f
C170 sky130_fd_sc_hd__a21o_1_2/X sky130_fd_sc_hd__a21o_1_0/a_299_297# 1.65e-19
C171 sky130_fd_sc_hd__and4_1_0/a_109_47# sky130_fd_sc_hd__and4_1_0/X 1.62e-19
C172 VPB G1 0.0196f
C173 P3 sky130_fd_sc_hd__a21o_1_1/X 0.185f
C174 sky130_fd_sc_hd__a21o_1_0/a_384_47# sky130_fd_sc_hd__a21o_1_0/X 0.00135f
C175 sky130_fd_sc_hd__a21o_1_2/X sky130_fd_sc_hd__a21o_1_1/a_299_297# 0.0334f
C176 P1 sky130_fd_sc_hd__a21o_1_0/X 1.23e-20
C177 G4 sky130_fd_sc_hd__a21o_1_1/X 0.0897f
C178 sky130_fd_sc_hd__a21o_1_0/X G2 0.0575f
C179 VNB sky130_fd_sc_hd__a21o_1_1/a_384_47# -1.89e-19
C180 sky130_fd_sc_hd__a21o_1_0/a_81_21# sky130_fd_sc_hd__a21o_1_0/X 0.059f
C181 sky130_fd_sc_hd__and4_1_0/a_109_47# sky130_fd_sc_hd__a21o_1_0/X 9.17e-21
C182 VPB CO -0.00363f
C183 P1 sky130_fd_sc_hd__and4_1_0/a_27_47# 0.019f
C184 VNB sky130_fd_sc_hd__a21o_1_2/a_299_297# -0.00449f
C185 sky130_fd_sc_hd__and4_1_0/a_197_47# VNB -4.52e-20
C186 VPB sky130_fd_sc_hd__a21o_1_2/a_384_47# -4.08e-19
C187 VNB P4 0.00496f
C188 sky130_fd_sc_hd__a21o_1_3/a_299_297# CI 0.00978f
C189 P1 P2 0.0215f
C190 P1 CI 2.89e-19
C191 sky130_fd_sc_hd__a21o_1_2/X sky130_fd_sc_hd__a21o_1_1/a_384_47# 1.32e-20
C192 P2 G2 0.00123f
C193 sky130_fd_sc_hd__a21o_1_0/a_81_21# P2 0.00281f
C194 sky130_fd_sc_hd__and4_1_0/a_109_47# P2 2.77e-19
C195 P3 CO 0.0012f
C196 sky130_fd_sc_hd__a21o_1_2/X sky130_fd_sc_hd__a21o_1_2/a_299_297# 0.0335f
C197 sky130_fd_sc_hd__a21o_1_0/X sky130_fd_sc_hd__a21o_1_0/a_299_297# 0.00259f
C198 P3 sky130_fd_sc_hd__a21o_1_2/a_384_47# 0.0013f
C199 VNB sky130_fd_sc_hd__a21o_1_1/X 0.0139f
C200 P3 VPB 0.0048f
C201 P4 sky130_fd_sc_hd__a21o_1_2/a_81_21# 0.00149f
C202 sky130_fd_sc_hd__a21o_1_2/X P4 0.00977f
C203 G4 VPB -0.00221f
C204 VNB 0 1.71f
C205 VPB 0 4.61f
C206 sky130_fd_sc_hd__and4_1_0/X 0 0.154f
C207 P1 0 0.164f
C208 P3 0 0.297f
C209 P2 0 0.31f
C210 P4 0 0.324f
C211 sky130_fd_sc_hd__and4_1_0/a_27_47# 0 0.175f
C212 CO 0 0.0276f
C213 CI 0 0.158f
C214 sky130_fd_sc_hd__a21o_1_3/a_299_297# 0 0.0348f
C215 sky130_fd_sc_hd__a21o_1_3/a_81_21# 0 0.147f
C216 sky130_fd_sc_hd__a21o_1_2/X 0 0.168f
C217 sky130_fd_sc_hd__a21o_1_1/X 0 0.129f
C218 G4 0 0.137f
C219 sky130_fd_sc_hd__a21o_1_2/a_299_297# 0 0.0348f
C220 sky130_fd_sc_hd__a21o_1_2/a_81_21# 0 0.147f
C221 sky130_fd_sc_hd__a21o_1_0/X 0 0.223f
C222 G3 0 0.137f
C223 sky130_fd_sc_hd__a21o_1_1/a_299_297# 0 0.0348f
C224 sky130_fd_sc_hd__a21o_1_1/a_81_21# 0 0.147f
C225 G1 0 0.12f
C226 G2 0 0.163f
C227 sky130_fd_sc_hd__a21o_1_0/a_299_297# 0 0.0348f
C228 sky130_fd_sc_hd__a21o_1_0/a_81_21# 0 0.147f
.ends

.subckt sky130_fd_sc_hd__xor2_1 A B VGND VNB VPB VPWR X a_117_297# a_285_297# a_285_47#
+ a_35_297#
X0 X a_35_297# a_285_297# VPB sky130_fd_pr__pfet_01v8_hvt ad=0.3 pd=2.6 as=0.177 ps=1.69 w=1 l=0.15
**devattr s=10400,504 d=12000,520
X1 X B a_285_47# VNB sky130_fd_pr__nfet_01v8 ad=0.25 pd=1.42 as=0.0878 ps=0.92 w=0.65 l=0.15
**devattr s=3510,184 d=10010,284
X2 a_35_297# B VGND VNB sky130_fd_pr__nfet_01v8 ad=0.0878 pd=0.92 as=0.138 ps=1.4 w=0.65 l=0.15
**devattr s=6760,364 d=3510,184
X3 a_117_297# B a_35_297# VPB sky130_fd_pr__pfet_01v8_hvt ad=0.135 pd=1.27 as=0.26 ps=2.52 w=1 l=0.15
**devattr s=10400,504 d=5400,254
X4 VPWR B a_285_297# VPB sky130_fd_pr__pfet_01v8_hvt ad=0.177 pd=1.69 as=0.177 ps=1.69 w=1 l=0.15
**devattr s=5400,254 d=10400,504
X5 VGND A a_35_297# VNB sky130_fd_pr__nfet_01v8 ad=0.138 pd=1.4 as=0.0878 ps=0.92 w=0.65 l=0.15
**devattr s=3510,184 d=3510,184
X6 VGND a_35_297# X VNB sky130_fd_pr__nfet_01v8 ad=0.138 pd=1.4 as=0.25 ps=1.42 w=0.65 l=0.15
**devattr s=10010,284 d=8320,388
X7 a_285_297# A VPWR VPB sky130_fd_pr__pfet_01v8_hvt ad=0.177 pd=1.69 as=0.177 ps=1.69 w=1 l=0.15
**devattr s=5400,254 d=5400,254
X8 VPWR A a_117_297# VPB sky130_fd_pr__pfet_01v8_hvt ad=0.177 pd=1.69 as=0.135 ps=1.27 w=1 l=0.15
**devattr s=5400,254 d=5400,254
X9 a_285_47# A VGND VNB sky130_fd_pr__nfet_01v8 ad=0.0878 pd=0.92 as=0.138 ps=1.4 w=0.65 l=0.15
**devattr s=3510,184 d=3510,184
C0 VGND A 0.0325f
C1 VPWR VPB 0.0689f
C2 a_117_297# B 0.00777f
C3 VGND B 0.0304f
C4 B A 0.221f
C5 VPWR X 0.0537f
C6 a_117_297# a_35_297# 0.00641f
C7 VGND a_35_297# 0.177f
C8 A a_35_297# 0.0633f
C9 VPWR a_285_47# 8.6e-19
C10 VGND VPB 0.00696f
C11 a_285_297# VPWR 0.246f
C12 A VPB 0.051f
C13 B a_35_297# 0.203f
C14 a_117_297# X 2.25e-19
C15 VGND X 0.173f
C16 B VPB 0.0697f
C17 A X 0.00166f
C18 VPB a_35_297# 0.0699f
C19 VGND a_285_47# 0.00552f
C20 B X 0.0149f
C21 VGND a_285_297# 0.00394f
C22 a_285_297# A 0.00749f
C23 X a_35_297# 0.166f
C24 B a_285_47# 3.98e-19
C25 B a_285_297# 0.0553f
C26 X VPB 0.0154f
C27 a_285_47# a_35_297# 0.00723f
C28 a_285_297# a_35_297# 0.025f
C29 a_117_297# VPWR 0.00852f
C30 VGND VPWR 0.0643f
C31 a_285_297# VPB 0.0133f
C32 VPWR A 0.0348f
C33 a_285_47# X 0.00206f
C34 a_285_297# X 0.0712f
C35 B VPWR 0.0703f
C36 VPWR a_35_297# 0.096f
C37 VGND a_117_297# 0.00177f
C38 VGND VNB 0.435f
C39 X VNB 0.0649f
C40 VPWR VNB 0.333f
C41 A VNB 0.167f
C42 B VNB 0.213f
C43 VPB VNB 0.693f
C44 a_285_297# VNB 0.00137f
C45 a_35_297# VNB 0.255f
.ends

.subckt adder_3 G1 P2 G2 G3 P4 S1 S2 S3 S4 sky130_fd_sc_hd__xor2_1_3/a_117_297# sky130_fd_sc_hd__xor2_1_3/a_35_297#
+ sky130_fd_sc_hd__a21o_1_0/a_81_21# sky130_fd_sc_hd__xor2_1_3/a_285_47# sky130_fd_sc_hd__xor2_1_0/a_285_297#
+ sky130_fd_sc_hd__a21o_1_0/a_384_47# sky130_fd_sc_hd__xor2_1_1/a_285_297# sky130_fd_sc_hd__xor2_1_0/a_35_297#
+ sky130_fd_sc_hd__xor2_1_0/a_285_47# sky130_fd_sc_hd__a21o_1_0/a_299_297# sky130_fd_sc_hd__a21o_1_1/a_81_21#
+ sky130_fd_sc_hd__xor2_1_2/a_285_297# sky130_fd_sc_hd__xor2_1_3/a_285_297# sky130_fd_sc_hd__a21o_1_1/a_299_297#
+ sky130_fd_sc_hd__a21o_1_2/a_299_297# sky130_fd_sc_hd__xor2_1_1/a_35_297# sky130_fd_sc_hd__xor2_1_3/B
+ sky130_fd_sc_hd__xor2_1_1/a_285_47# sky130_fd_sc_hd__xor2_1_1/B sky130_fd_sc_hd__a21o_1_2/a_81_21#
+ sky130_fd_sc_hd__a21o_1_2/a_384_47# sky130_fd_sc_hd__xor2_1_0/a_117_297# sky130_fd_sc_hd__xor2_1_2/a_35_297#
+ sky130_fd_sc_hd__xor2_1_2/a_285_47# sky130_fd_sc_hd__xor2_1_1/a_117_297# CI P1 SUB
+ sky130_fd_sc_hd__xor2_1_2/B sky130_fd_sc_hd__xor2_1_2/a_117_297# VPB P3
Xsky130_fd_sc_hd__xor2_1_3 P4 sky130_fd_sc_hd__xor2_1_3/B SUB SUB VPB VPB S4 sky130_fd_sc_hd__xor2_1_3/a_117_297#
+ sky130_fd_sc_hd__xor2_1_3/a_285_297# sky130_fd_sc_hd__xor2_1_3/a_285_47# sky130_fd_sc_hd__xor2_1_3/a_35_297#
+ sky130_fd_sc_hd__xor2_1
Xsky130_fd_sc_hd__a21o_1_0 CI P1 G1 SUB SUB VPB VPB sky130_fd_sc_hd__xor2_1_1/B sky130_fd_sc_hd__a21o_1_0/a_384_47#
+ sky130_fd_sc_hd__a21o_1_0/a_81_21# sky130_fd_sc_hd__a21o_1_0/a_299_297# sky130_fd_sc_hd__a21o_1
Xsky130_fd_sc_hd__a21o_1_1 sky130_fd_sc_hd__xor2_1_1/B P2 G2 SUB SUB VPB VPB sky130_fd_sc_hd__xor2_1_2/B
+ sky130_fd_sc_hd__a21o_1_1/a_384_47# sky130_fd_sc_hd__a21o_1_1/a_81_21# sky130_fd_sc_hd__a21o_1_1/a_299_297#
+ sky130_fd_sc_hd__a21o_1
Xsky130_fd_sc_hd__a21o_1_2 sky130_fd_sc_hd__xor2_1_2/B P3 G3 SUB SUB VPB VPB sky130_fd_sc_hd__xor2_1_3/B
+ sky130_fd_sc_hd__a21o_1_2/a_384_47# sky130_fd_sc_hd__a21o_1_2/a_81_21# sky130_fd_sc_hd__a21o_1_2/a_299_297#
+ sky130_fd_sc_hd__a21o_1
Xsky130_fd_sc_hd__xor2_1_0 P1 CI SUB SUB VPB VPB S1 sky130_fd_sc_hd__xor2_1_0/a_117_297#
+ sky130_fd_sc_hd__xor2_1_0/a_285_297# sky130_fd_sc_hd__xor2_1_0/a_285_47# sky130_fd_sc_hd__xor2_1_0/a_35_297#
+ sky130_fd_sc_hd__xor2_1
Xsky130_fd_sc_hd__xor2_1_1 P2 sky130_fd_sc_hd__xor2_1_1/B SUB SUB VPB VPB S2 sky130_fd_sc_hd__xor2_1_1/a_117_297#
+ sky130_fd_sc_hd__xor2_1_1/a_285_297# sky130_fd_sc_hd__xor2_1_1/a_285_47# sky130_fd_sc_hd__xor2_1_1/a_35_297#
+ sky130_fd_sc_hd__xor2_1
Xsky130_fd_sc_hd__xor2_1_2 P3 sky130_fd_sc_hd__xor2_1_2/B SUB SUB VPB VPB S3 sky130_fd_sc_hd__xor2_1_2/a_117_297#
+ sky130_fd_sc_hd__xor2_1_2/a_285_297# sky130_fd_sc_hd__xor2_1_2/a_285_47# sky130_fd_sc_hd__xor2_1_2/a_35_297#
+ sky130_fd_sc_hd__xor2_1
C0 S1 S2 0.0103f
C1 sky130_fd_sc_hd__xor2_1_3/B sky130_fd_sc_hd__a21o_1_0/a_81_21# 1.96e-19
C2 P2 CI 0.186f
C3 sky130_fd_sc_hd__xor2_1_3/a_35_297# S4 0.00521f
C4 P3 sky130_fd_sc_hd__xor2_1_1/B 0.051f
C5 P3 sky130_fd_sc_hd__xor2_1_2/B 0.902f
C6 SUB sky130_fd_sc_hd__xor2_1_3/a_35_297# 0.00517f
C7 P1 sky130_fd_sc_hd__xor2_1_0/a_35_297# 0.0139f
C8 P2 sky130_fd_sc_hd__xor2_1_1/a_285_47# 0.00118f
C9 P1 VPB 0.00988f
C10 VPB sky130_fd_sc_hd__xor2_1_1/a_285_297# 2.35e-20
C11 S3 sky130_fd_sc_hd__xor2_1_3/B 0.0617f
C12 sky130_fd_sc_hd__xor2_1_2/a_285_47# P3 0.00118f
C13 P3 S4 8.8e-19
C14 sky130_fd_sc_hd__a21o_1_0/a_81_21# sky130_fd_sc_hd__xor2_1_1/B 0.0562f
C15 P1 sky130_fd_sc_hd__a21o_1_0/a_384_47# 5.49e-19
C16 sky130_fd_sc_hd__xor2_1_0/a_285_47# P1 0.00118f
C17 sky130_fd_sc_hd__a21o_1_0/a_81_21# sky130_fd_sc_hd__xor2_1_2/B 0.00447f
C18 P1 sky130_fd_sc_hd__xor2_1_1/a_35_297# 0.00101f
C19 P3 SUB 0.27f
C20 sky130_fd_sc_hd__xor2_1_3/B sky130_fd_sc_hd__a21o_1_1/a_384_47# 1.76e-19
C21 sky130_fd_sc_hd__xor2_1_3/a_285_47# P3 3.53e-19
C22 VPB sky130_fd_sc_hd__a21o_1_2/a_299_297# 0.0344f
C23 S1 P1 0.00593f
C24 S1 sky130_fd_sc_hd__xor2_1_1/a_285_297# 0.00137f
C25 sky130_fd_sc_hd__xor2_1_3/B sky130_fd_sc_hd__xor2_1_2/a_285_297# 0.00704f
C26 P2 sky130_fd_sc_hd__xor2_1_2/a_35_297# 6.69e-19
C27 P3 sky130_fd_sc_hd__xor2_1_3/a_35_297# 0.00203f
C28 S3 sky130_fd_sc_hd__xor2_1_1/B 3.34e-20
C29 CI G2 2.73e-19
C30 sky130_fd_sc_hd__xor2_1_0/a_117_297# VPB -2.04e-19
C31 SUB sky130_fd_sc_hd__a21o_1_0/a_81_21# -0.00347f
C32 S3 sky130_fd_sc_hd__xor2_1_2/B 0.00532f
C33 sky130_fd_sc_hd__xor2_1_3/B S2 0.0546f
C34 P1 sky130_fd_sc_hd__a21o_1_2/a_81_21# 2.85e-19
C35 sky130_fd_sc_hd__xor2_1_1/B sky130_fd_sc_hd__a21o_1_0/a_299_297# 0.0526f
C36 sky130_fd_sc_hd__xor2_1_2/B sky130_fd_sc_hd__a21o_1_0/a_299_297# 0.0414f
C37 sky130_fd_sc_hd__xor2_1_1/B sky130_fd_sc_hd__a21o_1_1/a_384_47# 0.00123f
C38 P2 G2 6.94e-19
C39 S1 sky130_fd_sc_hd__a21o_1_2/a_299_297# 3.56e-19
C40 sky130_fd_sc_hd__xor2_1_2/B sky130_fd_sc_hd__a21o_1_1/a_384_47# 4.32e-19
C41 S3 S4 0.0102f
C42 sky130_fd_sc_hd__a21o_1_1/a_81_21# CI 1.09e-19
C43 S3 SUB -0.00162f
C44 sky130_fd_sc_hd__xor2_1_0/a_117_297# S1 4.28e-19
C45 S2 sky130_fd_sc_hd__xor2_1_1/B 0.00554f
C46 SUB sky130_fd_sc_hd__a21o_1_0/a_299_297# -0.00435f
C47 sky130_fd_sc_hd__xor2_1_2/B S2 0.00962f
C48 sky130_fd_sc_hd__a21o_1_1/a_81_21# P2 0.00611f
C49 S3 sky130_fd_sc_hd__xor2_1_3/a_35_297# 0.0518f
C50 SUB sky130_fd_sc_hd__xor2_1_2/a_285_297# -0.00394f
C51 P1 sky130_fd_sc_hd__xor2_1_3/B 0.0733f
C52 sky130_fd_sc_hd__xor2_1_3/B sky130_fd_sc_hd__xor2_1_1/a_285_297# 0.00704f
C53 SUB S2 -0.00162f
C54 sky130_fd_sc_hd__xor2_1_0/a_35_297# CI 0.0235f
C55 CI VPB 0.00219f
C56 P3 S3 0.00706f
C57 VPB sky130_fd_sc_hd__xor2_1_1/a_117_297# 2.29e-20
C58 CI sky130_fd_sc_hd__a21o_1_0/a_384_47# 0.00162f
C59 sky130_fd_sc_hd__xor2_1_0/a_35_297# P2 0.00129f
C60 sky130_fd_sc_hd__a21o_1_2/a_299_297# sky130_fd_sc_hd__xor2_1_3/B 6.06e-19
C61 CI sky130_fd_sc_hd__xor2_1_1/a_35_297# 7.26e-21
C62 P4 VPB 0.0224f
C63 P2 VPB 0.0257f
C64 P1 sky130_fd_sc_hd__xor2_1_1/B 0.132f
C65 P2 sky130_fd_sc_hd__a21o_1_1/a_299_297# 0.00664f
C66 VPB sky130_fd_sc_hd__xor2_1_1/a_285_47# -7.24e-19
C67 P1 sky130_fd_sc_hd__xor2_1_2/B 0.183f
C68 sky130_fd_sc_hd__xor2_1_2/a_117_297# VPB 2.25e-20
C69 S1 CI 0.002f
C70 sky130_fd_sc_hd__xor2_1_0/a_285_47# P2 4.62e-19
C71 sky130_fd_sc_hd__a21o_1_1/a_81_21# G2 0.0275f
C72 P2 sky130_fd_sc_hd__xor2_1_1/a_35_297# 0.0178f
C73 P1 G3 6.62e-19
C74 S1 sky130_fd_sc_hd__xor2_1_1/a_117_297# 0.00102f
C75 P3 S2 0.00112f
C76 CI sky130_fd_sc_hd__a21o_1_2/a_81_21# 1.2e-19
C77 sky130_fd_sc_hd__a21o_1_2/a_299_297# sky130_fd_sc_hd__xor2_1_1/B 0.0519f
C78 S1 P2 0.00354f
C79 sky130_fd_sc_hd__a21o_1_2/a_299_297# sky130_fd_sc_hd__xor2_1_2/B 0.00554f
C80 P1 SUB 1f
C81 CI G1 0.0805f
C82 SUB sky130_fd_sc_hd__xor2_1_1/a_285_297# -0.00394f
C83 S1 sky130_fd_sc_hd__xor2_1_2/a_117_297# 2.46e-20
C84 sky130_fd_sc_hd__xor2_1_0/a_117_297# sky130_fd_sc_hd__xor2_1_1/B 0.00427f
C85 VPB sky130_fd_sc_hd__xor2_1_2/a_35_297# 0.00796f
C86 P2 sky130_fd_sc_hd__a21o_1_2/a_81_21# 0.0197f
C87 sky130_fd_sc_hd__xor2_1_0/a_117_297# sky130_fd_sc_hd__xor2_1_2/B 2.27e-19
C88 sky130_fd_sc_hd__xor2_1_2/a_35_297# sky130_fd_sc_hd__xor2_1_1/a_35_297# 0.00123f
C89 sky130_fd_sc_hd__a21o_1_2/a_299_297# SUB -0.00449f
C90 VPB G2 0.00129f
C91 S3 sky130_fd_sc_hd__xor2_1_2/a_285_297# 0.00453f
C92 S1 sky130_fd_sc_hd__xor2_1_2/a_35_297# 2.99e-20
C93 sky130_fd_sc_hd__xor2_1_0/a_117_297# SUB -0.00177f
C94 sky130_fd_sc_hd__xor2_1_3/a_285_297# S4 0.00453f
C95 S3 S2 0.0102f
C96 P1 P3 0.0282f
C97 CI sky130_fd_sc_hd__xor2_1_3/B 0.0784f
C98 sky130_fd_sc_hd__a21o_1_1/a_81_21# VPB -0.00424f
C99 sky130_fd_sc_hd__xor2_1_1/a_117_297# sky130_fd_sc_hd__xor2_1_3/B 0.00134f
C100 P4 sky130_fd_sc_hd__xor2_1_3/B 0.104f
C101 P2 sky130_fd_sc_hd__xor2_1_3/B 0.107f
C102 sky130_fd_sc_hd__xor2_1_0/a_35_297# sky130_fd_sc_hd__a21o_1_2/a_384_47# 6.06e-21
C103 S2 sky130_fd_sc_hd__xor2_1_2/a_285_297# 0.00111f
C104 sky130_fd_sc_hd__xor2_1_3/B sky130_fd_sc_hd__xor2_1_1/a_285_47# 0.00253f
C105 P1 sky130_fd_sc_hd__a21o_1_0/a_81_21# 7.84e-20
C106 P3 sky130_fd_sc_hd__a21o_1_2/a_299_297# 0.00623f
C107 VPB sky130_fd_sc_hd__a21o_1_2/a_384_47# -4.08e-19
C108 sky130_fd_sc_hd__xor2_1_2/a_117_297# sky130_fd_sc_hd__xor2_1_3/B 0.00134f
C109 CI sky130_fd_sc_hd__xor2_1_1/B 0.155f
C110 G2 G1 1.42e-20
C111 CI sky130_fd_sc_hd__xor2_1_2/B 0.818f
C112 sky130_fd_sc_hd__xor2_1_1/a_117_297# sky130_fd_sc_hd__xor2_1_1/B 0.00269f
C113 CI G3 2.35e-19
C114 sky130_fd_sc_hd__xor2_1_0/a_35_297# VPB 0.042f
C115 P4 sky130_fd_sc_hd__xor2_1_1/B 9.9e-21
C116 P2 sky130_fd_sc_hd__xor2_1_1/B 0.223f
C117 S3 sky130_fd_sc_hd__xor2_1_1/a_285_297# 8.64e-20
C118 P2 sky130_fd_sc_hd__xor2_1_2/B 0.163f
C119 VPB sky130_fd_sc_hd__a21o_1_1/a_299_297# 0.0016f
C120 VPB sky130_fd_sc_hd__xor2_1_0/a_285_297# -3.91e-19
C121 sky130_fd_sc_hd__xor2_1_1/a_285_47# sky130_fd_sc_hd__xor2_1_2/B 5.8e-19
C122 sky130_fd_sc_hd__xor2_1_2/a_35_297# sky130_fd_sc_hd__xor2_1_3/B 0.0908f
C123 P1 sky130_fd_sc_hd__a21o_1_0/a_299_297# 0.00669f
C124 sky130_fd_sc_hd__xor2_1_2/a_117_297# sky130_fd_sc_hd__xor2_1_2/B 0.00267f
C125 CI SUB 0.176f
C126 sky130_fd_sc_hd__xor2_1_0/a_35_297# sky130_fd_sc_hd__xor2_1_1/a_35_297# 0.00128f
C127 VPB sky130_fd_sc_hd__a21o_1_0/a_384_47# -4.08e-19